pglib-scots/SCOTS-Slack/slack_relative_quadratic/pglib_opf_case60_c_scots.m
%%%%%%%%%%%%%%%%%%%%%%%%%%%%%%%%%%%%%%%%%%%%%%%%%%%%%%%%%%%%%%%%%%%%%%%%%%%
%%%%                                                                  %%%%%
%%%%    This is a modified SCOTS-feasible instance adapted from the   %%%%%
%%%%                                :                                 %%%%%
%%%%    IEEE PES Power Grid Library - Optimal Power Flow - v21.07     %%%%%
%%%%          (https://github.com/power-grid-lib/pglib-opf)           %%%%%
%%%%               Benchmark Group - Typical Operations               %%%%%
%%%%                         29 - July - 2021                         %%%%%
%%%%                                                                  %%%%%
%%%%%%%%%%%%%%%%%%%%%%%%%%%%%%%%%%%%%%%%%%%%%%%%%%%%%%%%%%%%%%%%%%%%%%%%%%%
%
%   This network data stems from the Nordic32 test system initially developed
%   by CIGRE Task Force 38.02.08, “Long-term dynamics, phase II” in 1995. These
%   data were further enriched by the research group of Thierry Van Cutsem and
%   then by Florin Capitanescu to include: (i) OPF-related data (physical
%   limits, cost functions); (ii) definition of various AC-OPF/SCOPF problems;
%   and (iii) data conversion from initial format into the MATPOWER (.m)
%   format. Note that AC-OPF formulations of this dataset have traditionally
%   modeled thermal limits in terms of current but this version of the dataset
%   uses MVA limits.
%
%   This power system model contains 60 buses, 23 generators, 57 lines,
%   31 transformers (out of which 8 OLTCs, the last 8 branch records),
%   22 loads, and 12 shunt elements.
%
%   Historically, this data has been used to solve various instances of
%   AC-OPF/SCOPF problems with different objective functions, sets of decision
%   variables including, generators active/reactive powers, ratio of LTC
%   transformers, reactance of shunt capacitors/reactors) and constraints. Some
%   of the OPF results can be found at:
%
%      https://people.montefiore.uliege.be/capitane
%
%   Researchers looking to include control variables like transformer tap ratio
%   and shunt reactance or N-1 contingencies can contact Florin Capitanescu for
%   the associated data.
%
%   When publishing results based on this data a suitable reference is:
%
%   [1] F. Capitanescu, "Suppressing ineffective control actions in optimal
%       power flow problems", IET Generation, Transmission & Distribution, 2020.
%
%   February, 2021
%
%   Copyright (c) 2021 by Florin Capitanescu <fcapitanescu@yahoo.com>
%   Licensed under the Creative Commons Attribution 4.0
%   International license, http://creativecommons.org/licenses/by/4.0/
%
%% MATPOWER Case Format : Version 2
function mpc = pglib_opf_case60_c
mpc.version = '2';

%%-----  Power Flow Data  -----%%
%% system MVA base
mpc.baseMVA = 100.0;
%% bus data
%    bus_i    type    Pd    Qd    Gs    Bs    area    Vm    Va    baseKV    zone    Vmax    Vmin
mpc.bus = [
	1	1	200.0	80.0	0.0	-340.12	1	1.0	0.0	130.0	1	1.1	0.9				
	2	1	300.0	100.0	0.0	0.0	1	1.0	0.0	130.0	1	1.1	0.9				
	3	1	100.0	40.0	0.0	0.0	1	1.0	0.0	130.0	1	1.1	0.9				
	4	1	280.0	95.0	0.0	150.0	1	1.0	0.0	130.0	1	1.1	0.9				
	5	1	402.2198	190.111	0.0	200.0	1	1.0	0.0	130.0	1	1.1	0.9				
	6	1	201.2099	75.06049	0.0	0.0	1	1.0	0.0	130.0	1	1.1	0.9				
	7	1	154.2076	96.21037	0.0	100.0	1	1.0	0.0	130.0	1	1.1	0.9				
	8	1	536.4263	286.8214	0.0	200.0	1	1.0	0.0	130.0	1	1.1	0.9				
	9	1	469.4231	238.4712	0.0	200.0	1	1.0	0.0	130.0	1	1.1	0.9				
	10	1	100.0	30.0	0.0	0.0	1	1.0	0.0	220.0	1	1.1	0.9				
	11	1	200.0	50.0	0.0	0.0	1	1.0	0.0	220.0	1	1.1	0.9				
	12	1	300.0	100.0	0.0	-400.0	1	1.0	0.0	400.0	1	1.1	0.9				
	13	1	2000.0	500.0	0.0	0.0	1	1.0	0.0	400.0	1	1.1	0.9				
	14	1	362.0178	151.1009	0.0	200.0	1	1.0	0.0	400.0	1	1.1	0.9				
	15	1	268.2132	143.4107	0.0	0.0	1	1.0	0.0	400.0	1	1.1	0.9				
	16	1	603.4296	288.1715	0.0	200.0	1	1.0	0.0	400.0	1	1.1	0.9				
	17	1	469.4231	238.4712	0.0	100.0	1	1.0	0.0	400.0	1	1.1	0.9				
	18	1	67.0033	48.35017	0.0	0.0	1	1.0	0.0	400.0	1	1.1	0.9				
	19	1	536.4263	288.8214	0.0	100.0	1	1.0	0.0	400.0	1	1.1	0.9				
	20	1	500.0	149.0	0.0	0.0	1	1.0	0.0	400.0	1	1.1	0.9				
	21	1	300.0	100.0	0.0	0.0	1	1.0	0.0	400.0	1	1.1	0.9				
	22	1	590.0	300.0	0.0	0.0	1	1.0	0.0	400.0	1	1.1	0.9				
	23	1	0.0	0.0	0.0	-100.0	1	1.0	0.0	400.0	1	1.1	0.9				
	24	1	0.0	0.0	0.0	0.0	1	1.0	0.0	130.0	1	1.1	0.9				
	25	1	0.0	0.0	0.0	0.0	1	1.0	0.0	130.0	1	1.1	0.9				
	26	1	0.0	0.0	0.0	0.0	1	1.0	0.0	400.0	1	1.1	0.9				
	27	1	0.0	0.0	0.0	0.0	1	1.0	0.0	400.0	1	1.1	0.9				
	28	1	0.0	0.0	0.0	0.0	1	1.0	0.0	400.0	1	1.1	0.9				
	29	1	0.0	0.0	0.0	0.0	1	1.0	0.0	400.0	1	1.1	0.9				
	30	1	0.0	0.0	0.0	0.0	1	1.0	0.0	400.0	1	1.1	0.9				
	31	1	0.0	0.0	0.0	0.0	1	1.0	0.0	400.0	1	1.1	0.9				
	32	1	0.0	0.0	0.0	0.0	1	1.0	0.0	400.0	1	1.1	0.9				
	33	1	0.0	0.0	0.0	0.0	1	1.0	0.0	400.0	1	1.1	0.9				
	34	1	0.0	0.0	0.0	0.0	1	1.0	0.0	400.0	1	1.1	0.9				
	35	1	0.0	0.0	0.0	0.0	1	1.0	0.0	400.0	1	1.1	0.9				
	36	1	0.0	0.0	0.0	0.0	1	1.0	0.0	400.0	1	1.1	0.9				
	37	1	0.0	0.0	0.0	0.0	1	1.0	0.0	400.0	1	1.1	0.9				
	38	2	0.0	0.0	0.0	0.0	1	1.0	0.0	15.0	1	1.1	0.9				
	39	2	0.0	0.0	0.0	0.0	1	1.0	0.0	15.0	1	1.1	0.9				
	40	2	0.0	0.0	0.0	0.0	1	1.0	0.0	15.0	1	1.1	0.9				
	41	2	0.0	0.0	0.0	0.0	1	1.0	0.0	15.0	1	1.1	0.9				
	42	2	0.0	0.0	0.0	0.0	1	1.0	0.0	15.0	1	1.1	0.9				
	43	2	0.0	0.0	0.0	0.0	1	1.0	0.0	15.0	1	1.1	0.9				
	44	2	0.0	0.0	0.0	0.0	1	1.0	0.0	15.0	1	1.1	0.9				
	45	2	0.0	0.0	0.0	0.0	1	1.0	0.0	15.0	1	1.1	0.9				
	46	2	0.0	0.0	0.0	0.0	1	1.0	0.0	15.0	1	1.1	0.9				
	47	2	0.0	0.0	0.0	0.0	1	1.0	0.0	15.0	1	1.1	0.9				
	48	2	0.0	0.0	0.0	0.0	1	1.0	0.0	15.0	1	1.1	0.9				
	49	2	0.0	0.0	0.0	0.0	1	1.0	0.0	15.0	1	1.1	0.9				
	50	2	0.0	0.0	0.0	0.0	1	1.0	0.0	15.0	1	1.1	0.9				
	51	2	0.0	0.0	0.0	0.0	1	1.0	0.0	15.0	1	1.1	0.9				
	52	3	0.0	0.0	0.0	0.0	1	1.0	0.0	15.0	1	1.1	0.9				
	53	2	0.0	0.0	0.0	0.0	1	1.0	0.0	15.0	1	1.1	0.9				
	54	2	0.0	0.0	0.0	0.0	1	1.0	0.0	15.0	1	1.1	0.9				
	55	2	0.0	0.0	0.0	0.0	1	1.0	0.0	15.0	1	1.1	0.9				
	56	2	0.0	0.0	0.0	0.0	1	1.0	0.0	15.0	1	1.1	0.9				
	57	2	0.0	0.0	0.0	0.0	1	1.0	0.0	15.0	1	1.1	0.9				
	58	2	0.0	0.0	0.0	0.0	1	1.0	0.0	15.0	1	1.1	0.9				
	59	2	0.0	0.0	0.0	0.0	1	1.0	0.0	15.0	1	1.1	0.9				
	60	2	0.0	0.0	0.0	0.0	1	1.0	0.0	15.0	1	1.1	0.9				
];

%%	 generator data
%    bus    Pg    Qg    Qmax    Qmin    Vg    mBase    status    Pmax    Pmin    Pc1    Pc2    Qc1min    Qc1max    Qc2min    Qc2max    ramp_agc    ramp_10    ramp_30    ramp_q    apf
mpc.gen = [
	38	365.0	0.0	720.0	-720.0	1.0	800.0	1	720.002	9.998															
	39	275.0	0.0	540.0	-540.0	1.0	600.0	1	540.002	9.998															
	40	320.0	0.0	630.0	-630.0	1.0	700.0	1	630.002	9.998															
	41	275.0	0.0	540.0	-540.0	1.0	600.0	1	540.002	9.998															
	42	242.5	50.0	325.0	-225.0	1.0	400.0	1	475.002	9.998															
	43	285.0	100.0	560.0	-360.0	1.0	600.0	1	560.002	9.998															
	44	195.0	40.0	360.0	-280.0	1.0	400.0	1	380.002	10.0															
	45	487.5	100.0	965.0	-765.0	1.0	1000.0	1	965.003	9.997															
	46	455.0	0.0	900.0	-900.0	1.0	1000.0	1	900.003	9.997															
	47	365.0	0.0	720.0	-720.0	1.0	800.0	1	720.003	9.998															
	48	290.0	100.0	570.0	-370.0	1.0	600.0	1	570.002	9.998															
	49	292.5	50.0	515.0	-415.0	1.0	600.0	1	575.002	9.998															
	50	0.0	0.0	570.0	-570.0	1.0	600.0	1	0.0	0.0															
	51	320.0	0.0	630.0	-630.0	1.0	700.0	1	630.002	9.998															
	52	1405.0	650.0	1840.0	-540.0	1.0	3000.0	1	2800.0	9.992															
	53	275.0	20.0	580.0	-540.0	1.0	600.0	1	540.002	9.998															
	54	320.0	0.0	630.0	-630.0	1.0	700.0	1	630.002	9.998															
	55	320.0	0.0	630.0	-630.0	1.0	700.0	1	630.002	9.998															
	56	275.0	0.0	540.0	-540.0	1.0	600.0	1	540.002	9.998															
	57	275.0	0.0	540.0	-540.0	1.0	600.0	1	540.002	9.998															
	58	275.0	0.0	540.0	-540.0	1.0	600.0	1	540.002	9.998															
	59	285.0	35.0	520.0	-450.0	1.0	600.0	1	573.028	9.998															
	60	2255.0	975.0	4000.0	-2050.0	1.0	5000.0	1	4500.011	9.989															
];

%%	 branch data
%    f_bus    t_bus    r    x    b    rateA    rateB    rateC    ratio    angle    status    angmin    angmax
mpc.branch = [
	1	3	0.01	0.07	0.0138	175.0	175.0	175.0	0	0	1	-30.0	30.0								
	1	3	0.01	0.07	0.0138	175.0	175.0	175.0	0	0	1	-30.0	30.0								
	2	24	0.01402	0.09	0.01805	175.0	175.0	175.0	0	0	1	-30.0	30.0								
	2	24	0.01402	0.09	0.01805	175.0	175.0	175.0	0	0	1	-30.0	30.0								
	3	24	0.00698	0.05	0.01009	175.0	175.0	175.0	0	0	1	-30.0	30.0								
	3	24	0.00698	0.05	0.01009	175.0	175.0	175.0	0	0	1	-30.0	30.0								
	25	4	0.03	0.2	0.03026	175.0	175.0	175.0	0	0	1	-30.0	30.0								
	25	4	0.03	0.2	0.03026	175.0	175.0	175.0	0	0	1	-30.0	30.0								
	5	7	0.01	0.06	0.01221	175.0	175.0	175.0	0	0	1	-30.0	30.0								
	5	7	0.01	0.06	0.01221	175.0	175.0	175.0	0	0	1	-30.0	30.0								
	5	9	0.01497	0.12	0.02495	175.0	175.0	175.0	0	0	1	-30.0	30.0								
	5	9	0.01497	0.12	0.02495	175.0	175.0	175.0	0	0	1	-30.0	30.0								
	6	8	0.03799	0.28	0.06	175.0	175.0	175.0	0	0	1	-30.0	30.0								
	6	8	0.03799	0.28	0.06	175.0	175.0	175.0	0	0	1	-30.0	30.0								
	6	9	0.05	0.3	0.06	175.0	175.0	175.0	0	0	1	-30.0	30.0								
	7	8	0.01	0.08	0.01593	175.0	175.0	175.0	0	0	1	-30.0	30.0								
	7	8	0.01	0.08	0.01593	175.0	175.0	175.0	0	0	1	-30.0	30.0								
	10	11	0.012	0.09	0.0152	250.0	250.0	250.0	0	0	1	-30.0	30.0								
	10	11	0.012	0.09	0.0152	250.0	250.0	250.0	0	0	1	-30.0	30.0								
	26	23	0.001	0.008	0.20106	700.002	700.0	700.0	0	0	1	-30.0	30.0								
	26	27	0.006	0.06	1.79949	700.002	700.0	700.0	0	0	1	-30.0	30.0								
	26	28	0.004	0.04	1.20134	700.002	700.0	700.0	0	0	1	-30.0	30.0								
	26	12	0.005	0.045	1.4024	863.487	700.0	700.0	0	0	1	-30.0	30.0								
	23	28	0.004	0.035	1.05056	700.002	700.0	700.0	0	0	1	-30.0	30.0								
	23	12	0.005	0.05	1.49792	863.487	700.0	700.0	0	0	1	-30.0	30.0								
	27	29	0.004	0.04	1.20134	700.002	700.0	700.0	0	0	1	-30.0	30.0								
	27	30	0.01	0.1	3.00086	700.002	700.0	700.0	0	0	1	-30.0	30.0								
	30	15	0.0	-0.04	0.0	700.002	700.0	700.0	0	0	1	-30.0	30.0								
	28	31	0.004	0.04	1.20134	700.002	700.0	700.0	0	0	1	-30.0	30.0								
	28	31	0.004	0.04	1.20134	700.002	700.0	700.0	0	0	1	-30.0	30.0								
	31	29	0.001	0.01	0.30159	700.002	700.0	700.0	0	0	1	-30.0	30.0								
	31	32	0.006	0.08	2.39766	700.002	700.0	700.0	0	0	1	-30.0	30.0								
	32	14	0.0	-0.04	0.0	700.002	700.0	700.0	0	0	1	-30.0	30.0								
	31	33	0.006	0.08	2.39766	700.002	700.0	700.0	0	0	1	-30.0	30.0								
	33	14	0.0	-0.04	0.0	700.002	700.0	700.0	0	0	1	-30.0	30.0								
	29	34	0.01	0.06667	2.00058	700.002	700.0	700.0	0	0	1	-30.0	30.0								
	34	15	0.0	-0.02667	0.0	700.002	700.0	700.0	0	0	1	-30.0	30.0								
	29	35	0.006	0.08	2.39766	700.002	700.0	700.0	0	0	1	-30.0	30.0								
	35	36	0.0	-0.03	0.0	700.002	700.0	700.0	0	0	1	-30.0	30.0								
	14	36	0.003	0.03	0.89974	700.002	700.0	700.0	0	0	1	-30.0	30.0								
	14	20	0.006	0.045	1.30189	700.002	700.0	700.0	0	0	1	-30.0	30.0								
	15	16	0.002	0.015	0.49763	700.002	700.0	700.0	0	0	1	-30.0	30.0								
	15	36	0.002	0.02	0.59818	700.002	700.0	700.0	0	0	1	-30.0	30.0								
	16	36	0.001	0.01	0.30159	700.002	700.0	700.0	0	0	1	-30.0	30.0								
	16	17	0.001	0.01	0.30159	700.002	700.0	700.0	0	0	1	-30.0	30.0								
	16	18	0.002	0.02	0.59818	700.002	700.0	700.0	0	0	1	-30.0	30.0								
	36	37	0.002	0.02	0.59818	700.002	700.0	700.0	0	0	1	-30.0	30.0								
	36	37	0.002	0.02	0.59818	700.002	700.0	700.0	0	0	1	-30.0	30.0								
	37	19	0.004	0.04	1.20134	700.002	700.0	700.0	0	0	1	-30.0	30.0								
	37	19	0.004	0.04	1.20134	700.002	700.0	700.0	0	0	1	-30.0	30.0								
	37	21	0.011	0.08	2.39766	700.002	700.0	700.0	0	0	1	-30.0	30.0								
	17	18	0.001	0.015	0.49763	700.002	700.0	700.0	0	0	1	-30.0	30.0								
	20	21	0.002	0.02	0.59818	700.002	700.0	700.0	0	0	1	-30.0	30.0								
	21	22	0.003	0.03	0.89974	700.002	700.0	700.0	0	0	1	-30.0	30.0								
	21	22	0.003	0.03	0.89974	700.002	700.0	700.0	0	0	1	-30.0	30.0								
	12	13	0.003	0.03	3.00086	1000.001	700.0	700.0	0	0	1	-30.0	30.0								
	12	13	0.003	0.03	3.00086	1000.001	700.0	700.0	0	0	1	-30.0	30.0								
	2	38	0.0	0.01875	0.0	800.003	800.0	800.0	1.0	0.0	1	-30.0	30.0								
	3	39	0.0	0.025	0.0	600.002	600.0	600.0	1.0	0.0	1	-30.0	30.0								
	24	40	0.0	0.02143	0.0	700.002	700.0	700.0	1.0	0.0	1	-30.0	30.0								
	25	41	0.0	0.025	0.0	600.002	600.0	600.0	1.0	0.0	1	-30.0	30.0								
	4	42	0.0	0.06	0.0	1250.004	1250.0	1250.0	1.0	0.0	1	-30.0	30.0								
	6	43	0.0	0.0375	0.0	400.002	400.0	400.0	1.0	0.0	1	-30.0	30.0								
	7	44	0.0	0.075	0.0	1200.004	1200.0	1200.0	1.0	0.0	1	-30.0	30.0								
	11	45	0.0	0.01765	0.0	850.003	850.0	850.0	1.0	0.0	1	-30.0	30.0								
	26	46	0.0	0.015	0.0	1000.003	1000.0	1000.0	1.0	0.0	1	-30.0	30.0								
	23	47	0.0	0.01875	0.0	800.003	800.0	800.0	1.0	0.0	1	-30.0	30.0								
	27	48	0.0	0.05	0.0	300.0	300.0	300.0	1.0	0.0	1	-30.0	30.0								
	31	49	0.0	0.04286	0.0	1350.004	1350.0	1350.0	1.0	0.0	1	-30.0	30.0								
	14	50	0.0	0.03333	0.0	300.0	300.0	300.0	1.0	0.0	1	-30.0	30.0								
	15	51	0.0	0.02143	0.0	700.002	700.0	700.0	1.0	0.0	1	-30.0	30.0								
	18	52	0.0	0.025	0.0	600.002	600.0	600.0	1.0	0.0	1	-30.0	30.0								
	18	53	0.0	0.025	0.0	600.002	600.0	600.0	1.0	0.0	1	-30.0	30.0								
	19	54	0.0	0.02143	0.0	700.002	700.0	700.0	1.0	0.0	1	-30.0	30.0								
	19	55	0.0	0.02143	0.0	700.002	700.0	700.0	1.0	0.0	1	-30.0	30.0								
	21	56	0.0	0.025	0.0	600.002	600.0	600.0	1.0	0.0	1	-30.0	30.0								
	22	57	0.0	0.025	0.0	600.002	600.0	600.0	1.0	0.0	1	-30.0	30.0								
	22	58	0.0	0.025	0.0	600.002	600.0	600.0	1.0	0.0	1	-30.0	30.0								
	12	59	0.0	0.03	0.0	573.028	500.0	500.0	1.0	0.0	1	-30.0	30.0								
	13	60	0.0	0.00333	0.0	4500.011	4500.0	4500.0	1.0	0.0	1	-30.0	30.0								
	26	1	0.0	0.008	0.0	1250.004	1250.0	1250.0	0.89286	0.0	1	-30.0	30.0								
	23	2	0.0	0.008	0.0	1250.004	1250.0	1250.0	0.89286	0.0	1	-30.0	30.0								
	28	4	0.0	0.012	0.0	833.303	833.3	833.3	0.93458	0.0	1	-30.0	30.0								
	31	10	0.0	0.012	0.0	833.303	833.3	833.3	0.95238	0.0	1	-30.0	30.0								
	36	8	0.0	0.01	0.0	1000.003	1000.0	1000.0	1.0	0.0	1	-30.0	30.0								
	36	8	0.0	0.01	0.0	1000.003	1000.0	1000.0	1.0	0.0	1	-30.0	30.0								
	37	9	0.0	0.01	0.0	1000.003	1000.0	1000.0	1.0	0.0	1	-30.0	30.0								
	37	9	0.0	0.01	0.0	1000.003	1000.0	1000.0	1.0	0.0	1	-30.0	30.0								
];

%%-----	  OPF Data  -----%%
%% cost data
%    1    startup    shutdown    n    x1    y1    ...    xn    yn
%    2    startup    shutdown    n    c(n-1)    ...    c0
mpc.gencost = [
	2	0.0	0.0	2	10.0	0.0
	2	0.0	0.0	2	20.0	0.0
	2	0.0	0.0	2	10.0	0.0
	2	0.0	0.0	2	30.0	0.0
	2	0.0	0.0	2	10.0	0.0
	2	0.0	0.0	2	20.0	0.0
	2	0.0	0.0	2	10.0	0.0
	2	0.0	0.0	2	30.0	0.0
	2	0.0	0.0	2	10.0	0.0
	2	0.0	0.0	2	10.0	0.0
	2	0.0	0.0	2	20.0	0.0
	2	0.0	0.0	2	10.0	0.0
	2	0.0	0.0	2	30.0	0.0
	2	0.0	0.0	2	10.0	0.0
	2	0.0	0.0	2	20.0	0.0
	2	0.0	0.0	2	10.0	0.0
	2	0.0	0.0	2	10.0	0.0
	2	0.0	0.0	2	30.0	0.0
	2	0.0	0.0	2	10.0	0.0
	2	0.0	0.0	2	20.0	0.0
	2	0.0	0.0	2	10.0	0.0
	2	0.0	0.0	2	30.0	0.0
	2	0.0	0.0	2	10.0	0.0
];

	 